LAMMPS (2 Jun 2022)
#melt Cu-Ni using eam/alloy potential

units metal

lattice  fcc 3.61
Lattice spacing in x,y,z = 3.61 3.61 3.61
region   box block 0 5 0 5 0 5

create_box  2 box
Created orthogonal box = (0 0 0) to (18.05 18.05 18.05)
create_atoms  1 box
Created 500 atoms
group 1 type 1 2
500 atoms in group 1

set group 1 type/fraction 2 0.5 100000
Setting atom values ...
  257 settings made for type/fraction
mass  1 63.54
mass  2 58.69
velocity all create 2000  2000

pair_style  eam/alloy
pair_coeff  * * CuNi.eam.alloy Cu Ni
Reading eam/alloy potential file CuNi.eam.alloy with DATE: 2014-07-11
neighbor    2.0 bin
neigh_modify every 20 delay 0 check no

fix 1 all nvt temp 1000 3000 100

thermo  1000
thermo_style  custom   step temp press vol pe ke etotal enthalpy
thermo_modify flush yes

compute  myMSD all msd
fix      2 all ave/time 1 10 10 c_myMSD[4] file msd.txt

dump 1 all custom 1000  dump.lammpstrj  id type x y z

run 1000000
  update every 20 steps, delay 0 steps, check no
Step          Temp          Press          Volume         PotEng         KinEng         TotEng        Enthalpy
0   2000.0781     -13044.459      5880.7351     -1986.3195      129.00666     -1857.3128     -1905.192
Averages over the last 501 of 1001 rows, steps 500000 to 1000000:
Temp Press Volume PotEng KinEng TotEng Enthalpy
2048.98 116501 5880.74 -1841.7 132.161 -1709.54 -1281.93
Loop time of 2351.17 on 8 procs for 1000000 steps with 500 atoms
