LAMMPS (2 Jun 2022)
#initial setup
units 			metal
boundary 		p p p
atom_style		atomic
timestep		0.001
neighbor		2.0 bin
neigh_modify	delay 0 every 5 check yes
#modeling box
region 			box block 0 20 0 20 0 20 units box
create_box		2 box
Created orthogonal box = (0 0 0) to (20 20 20)
#Cu
lattice 		fcc 3.61
Lattice spacing in x,y,z = 3.61 3.61 3.61
region 			Cu block 0 20 0 20 0 16 units box
create_atoms 	1 region Cu
Created 648 atoms
mass			1 63.54
#Ni
lattice 		fcc 3.53
Lattice spacing in x,y,z = 3.53 3.53 3.53
region 			Ni block 0 20 0 20 16 20 units box
create_atoms 	2 region Ni
Created 144 atoms
mass			1 58.69
#eam potential coefficent
pair_style 		eam/alloy
pair_coeff * * CuNi.eam.alloy Cu Ni
Reading eam/alloy potential file CuNi.eam.alloy with DATE: 2014-07-11
#minimize energy
thermo 3000
dump 1 all atom 5 1mini.xyz
min_style cg
minimize 1e-15 1e-15 10000 10000
  update every 1 steps, delay 0 steps, check yes
Step          Temp          E_pair         E_mol          TotEng         Press
0   0              2996.1822      0              2996.1822      1105433
Loop time of 1.24909 on 8 procs for 271 steps with 792 atoms

Minimization stats:
  Stopping criterion = linesearch alpha is zero
  Energy initial, next-to-last, final =
  Force two-norm initial, final = 3343.207 0.02729712
  Force max component initial, final = 594.06902 0.0057750068
  Final line search alpha, max atom move = 1.5258789e-05 8.811961e-08
  Iterations, force evaluations = 271 1453

undump 1
reset_timestep 0
#initial velocity all create 298 87955 rot yes dist gaussian
#npt temp up
reset_timestep	0
fix				1 all npt temp 298 3000 0.1 iso 0.0 0.0 1
dump 			1 all atom 5000 2npt_hot.xyz
run				100000
Step          Temp          E_pair         E_mol          TotEng         Press          Volume
0   0             -2772.555       0             -2772.555       299461.72      8000
Averages over the last 18 of 35 rows, steps 51000 to 100000:
Temp E_pair E_mol TotEng Press Volume
2347.25 -2518.03 0 -2278.03 -321.899 11277.4
Loop time of 81.8028 on 8 procs for 100000 steps with 792 atoms

unfix			1
undump			1
reset_timestep  0
#nvt mix up
dump			1 all atom 5000 3nvt_equ.xyz
run				1
Step          Temp          E_pair         E_mol          TotEng         Press
0   3044.9294     -2431.9966      0             -2120.6685     -11358.219
Loop time of 0.000353875 on 8 procs for 1 steps with 792 atoms

fix 			1 all nvt temp	3000 3000 0.1
unfix			1
undump			1
reset_timestep	0
#nvt
fix 			1 all nvt temp 3000 3000 0.1
thermo 1000
thermo_style custom step temp press vol pe ke etotal enthalpy
thermo_modify flush yes
compute 1 all orientorder/atom degrees 3 4 6 8
dump 1 all custom 10000 dump.traj id type x y z c_1[1] c_1[2] c_1[3]
run 5000000
  update every 5 steps, delay 0 steps, check yes
Step          Temp          Press          Volume         PotEng         KinEng         TotEng        Enthalpy
0   3044.9294     -11358.219      11898.208     -2431.9966      311.32812     -2120.6685     -2205.0178
Averages over the last 2501 of 5001 rows, steps 2500000 to 5000000:
Temp Press Volume PotEng KinEng TotEng Enthalpy
3004.06 -7601.71 11898.2 -2422.35 307.15 -2115.2 -2171.65
Loop time of 3463.79 on 8 procs for 5000000 steps with 792 atoms
