LAMMPS (2 Jun 2022)
#LAMMPS Input file generated by Avogadro
# water

# Intialization
units          real
dimension      3
boundary       p p p
atom_style     full
newton         on
read_data      water64.data  ## "enter your data file name"
Reading data file ...
  orthogonal box = (0 0 0) to (24.8895 24.8895 12.4447)
  reading atoms ...
  192 atoms
  scanning bonds ...
  scanning angles ...
  reading bonds ...
  128 bonds
  reading angles ...
  64 angles
Finding 1-2 1-3 1-4 neighbors ...
     2 = max # of 1-2 neighbors
     1 = max # of 1-3 neighbors
     1 = max # of 1-4 neighbors
     2 = max # of special neighbors

#The TIP4P/ICE water potential
#===========================================
# modify it to TIP4P/ICE potential
pair_style      lj/cut/tip4p/long  1 2 1 1 0.1546 8.5 10.0 #pair_style cannot write twice but can use hybrid code
pair_coeff      1 1 0.1852 3.1589 8.5   #this parameter can get from manual or paper
pair_coeff      * 2 0.00000 0.0000 8.5

bond_style      harmonic
bond_coeff      1  0   0.9572
angle_style     harmonic
angle_coeff     1  0  104.52

kspace_style    pppm/tip4p 0.0001

neighbor       2.0 bin
neigh_modify   every 1 delay 0 check yes

mass            1       15.999400
mass            2        1.008000

#dihedral_style  none
#improper_style  none

fix             fixShake  all shake 0.0001 20 0 b 1 a 1
       0 = # of size 2 clusters
       0 = # of size 3 clusters
       0 = # of size 4 clusters
      64 = # of frozen angles
  find clusters CPU = 0.000 seconds
# modify it to TIP4P/ICE potential
#===========================================

# Settings
velocity       all create 360.00 300 rot yes mom yes dist gaussian
fix            ensemble all nvt temp 360.00 360.00 100

compute rd1 all rdf 100 1 1  #rdf
fix OO all ave/time 1000 1 1000 c_rd1[1] c_rd1[2] c_rd1[3] file rdf.OO mode vector

compute rd2 all rdf 100 1 2  #rdf
fix OH all ave/time 1000 1 1000  c_rd2[1] c_rd2[2] c_rd2[3] file rdf.OH mode vector

compute msd all msd com yes   #计算MSD
fix savemsd all ave/time 1000 1 1000 c_msd[1] c_msd[2] c_msd[3] c_msd[4] file msd.data mode scalar

timestep       1.0

# Output

thermo         2000
thermo_style   custom step temp pe etotal press vol
thermo_modify  flush yes

dump         water  all  custom 2000   test.lammpstrj id mol type x y z xu yu zu

# Run the simulation
run            500000
PPPM initialization ...
  extracting TIP4P info from pair style
  G vector (1/distance) = 0.27718419
  grid = 15 15 8
  stencil order = 5
  estimated absolute RMS force accuracy = 0.015008741
  estimated relative force accuracy = 4.5198379e-05
  3d grid and FFT values/proc = 2100 256
Generated 0 of 1 mixed pair_coeff terms from geometric mixing rule
  update every 1 steps, delay 0 steps, check yes
Step          Temp          PotEng         TotEng         Press          Volume
0   360           -737.17151     -600.88887      1652.8512      7709.3325
Averages over the last 126 of 251 rows, steps 250000 to 500000:
Temp PotEng TotEng Press Volume
360.753 -723.218 -586.65 -68.859 7709.33
Loop time of 633.827 on 8 procs for 500000 steps with 192 atoms

write_data   system_after_nvt.data
System init for write_data ...
PPPM initialization ...
  extracting TIP4P info from pair style
  G vector (1/distance) = 0.27718419
  grid = 15 15 8
  stencil order = 5
  estimated absolute RMS force accuracy = 0.015008741
  estimated relative force accuracy = 4.5198379e-05
  3d grid and FFT values/proc = 2100 256
Generated 0 of 1 mixed pair_coeff terms from geometric mixing rule
