LAMMPS (2 Jun 2022)
units metal
atom_style atomic
lattice fcc 3.61
Lattice spacing in x,y,z = 3.61 3.61 3.61
region box block 0 5 0 5 0 5
create_box 1 box
Created orthogonal box = (0 0 0) to (18.05 18.05 18.05)
create_atoms 1 box
Created 500 atoms
mass 1 64
velocity all create 3000 3000

pair_style lj/cut 3.6
pair_coeff 1 1 0.167 2.314 3.6
neighbor 2.0 bin
neigh_modify every 20 delay 0 check no

fix 1 all nvt temp 3000 3000 100

thermo 1000
thermo_style custom step temp press vol pe ke etotal enthalpy
thermo_modify flush yes
compute 1 all orientorder/atom degrees 3 4 6 8
dump 1 all custom 1000 dump.traj id type c_1[2] c_1[3]
run 1000000
Generated 0 of 0 mixed pair_coeff terms from geometric mixing rule
  update every 20 steps, delay 0 steps, check no
Step          Temp          Press          Volume         PotEng         KinEng         TotEng        Enthalpy
0   3000           101697.48      5880.7351     -494.9565       193.50244     -301.45406      71.823131
Averages over the last 501 of 1001 rows, steps 500000 to 1000000:
Temp Press Volume PotEng KinEng TotEng Enthalpy
3025 328936 5880.74 -356.483 195.115 -161.368 1045.98
Loop time of 103.833 on 8 procs for 1000000 steps with 500 atoms
