LAMMPS (2 Jun 2022)
#initial setup
units 			metal
boundary 		p p p
atom_style		atomic
timestep		0.001
neighbor		2.0 bin
neigh_modify	delay 0 every 5 check yes
#modeling box
region 			box block 0 20 0 20 0 20 units box
create_box		2 box
Created orthogonal box = (0 0 0) to (20 20 20)
#Cu
lattice 		fcc 3.61
Lattice spacing in x,y,z = 3.61 3.61 3.61
region 			Cu block 0 20 0 20 0 10 units box
create_atoms 	1 region Cu
Created 432 atoms
mass			1 63.54
#Ni
lattice 		fcc 3.53
Lattice spacing in x,y,z = 3.53 3.53 3.53
region 			Ni block 0 20 0 20 10 20 units box
create_atoms 	2 region Ni
Created 432 atoms
mass			1 58.69
#eam potential coefficent
pair_style 		eam/alloy
pair_coeff * * CuNi.eam.alloy Cu Ni
Reading eam/alloy potential file CuNi.eam.alloy with DATE: 2014-07-11

fix 1 all nvt temp 3000 3000 100
thermo 1000
thermo_style custom step temp press vol pe ke etotal enthalpy
thermo_modify flush yes
dump 1 all custom 1000 dump.traj id type x y z
run 1000000
  update every 5 steps, delay 0 steps, check yes
Step          Temp          Press          Volume         PotEng         KinEng         TotEng        Enthalpy
0   0              1156142        8000           2017.7911      0              2017.7911      7790.648
Averages over the last 501 of 1001 rows, steps 500000 to 1000000:
Temp Press Volume PotEng KinEng TotEng Enthalpy
2917.57 -69336.2 8000 -4240.86 325.459 -3915.41 -4261.62
Loop time of 2249.28 on 8 procs for 1000000 steps with 864 atoms
